Version 4
SHEET 1 904 680
WIRE -240 -96 -400 -96
WIRE 208 -96 -112 -96
WIRE -240 -32 -272 -32
WIRE 208 -16 208 -96
WIRE 608 -16 208 -16
WIRE 848 -16 608 -16
WIRE -400 0 -400 -16
WIRE -272 0 -272 -32
WIRE -272 0 -400 0
WIRE 848 0 848 -16
WIRE 320 16 128 16
WIRE 448 16 320 16
WIRE -400 32 -400 0
WIRE 320 32 320 16
WIRE -112 48 -112 -32
WIRE -112 48 -240 48
WIRE 608 96 608 48
WIRE 848 96 848 80
WIRE 848 96 608 96
WIRE 208 112 208 -16
WIRE 848 112 848 96
WIRE 128 128 128 16
WIRE 176 128 128 128
WIRE 320 144 320 96
WIRE 320 144 240 144
WIRE 448 144 448 96
WIRE 448 144 320 144
WIRE 496 144 448 144
WIRE 608 144 576 144
WIRE 752 144 608 144
WIRE -384 160 -496 160
WIRE -240 160 -240 48
WIRE -240 160 -320 160
WIRE -192 160 -240 160
WIRE -48 160 -112 160
WIRE 48 160 -48 160
WIRE 176 160 48 160
WIRE -496 224 -496 160
WIRE -48 224 -48 160
WIRE 48 224 48 160
WIRE 128 224 128 128
WIRE 608 240 608 144
WIRE -496 368 -496 304
WIRE -48 368 -48 288
WIRE -48 368 -496 368
WIRE 48 368 48 304
WIRE 48 368 -48 368
WIRE 128 368 128 304
WIRE 128 368 48 368
WIRE 208 368 208 176
WIRE 208 368 128 368
WIRE 608 368 608 304
WIRE 608 368 208 368
WIRE 128 384 128 368
FLAG 128 384 0
FLAG 848 112 0
FLAG 752 144 ADC
FLAG -400 32 0
SYMBOL OpAmps\\LTC1050 208 80 R0
SYMATTR InstName U1
SYMBOL res 112 208 R0
SYMATTR InstName R1
SYMATTR Value 1k
SYMBOL res 32 208 R0
SYMATTR InstName R2
SYMATTR Value 100k
SYMBOL res -96 144 R90
WINDOW 0 0 56 VBottom 2
WINDOW 3 32 56 VTop 2
SYMATTR InstName R3
SYMATTR Value 10k
SYMBOL res 464 112 R180
WINDOW 0 36 76 Left 2
WINDOW 3 36 40 Left 2
SYMATTR InstName R4
SYMATTR Value 100k
SYMBOL res 480 160 R270
WINDOW 0 32 56 VTop 2
WINDOW 3 0 56 VBottom 2
SYMATTR InstName R5
SYMATTR Value 1k
SYMBOL cap 592 -16 R0
SYMATTR InstName C1
SYMATTR Value 100n
SYMBOL cap 592 240 R0
SYMATTR InstName C2
SYMATTR Value 100n
SYMBOL cap 304 32 R0
SYMATTR InstName C3
SYMATTR Value 1µ
SYMBOL cap -64 224 R0
SYMATTR InstName C4
SYMATTR Value 100n
SYMBOL voltage 848 -16 R0
WINDOW 123 0 0 Left 0
WINDOW 39 0 0 Left 0
SYMATTR InstName V1
SYMATTR Value 5
SYMBOL capteurgraphite -176 -64 R0
SYMATTR InstName X1
SYMBOL voltage -400 -112 R0
WINDOW 3 24 96 Left 0
WINDOW 123 0 0 Left 0
WINDOW 39 0 0 Left 0
SYMATTR InstName V2
SYMATTR Value PULSE(0 1 0.2 0.1 0.1 20)
SYMBOL cap -320 144 R90
WINDOW 0 0 32 VBottom 2
WINDOW 3 32 32 VTop 2
SYMATTR InstName C5
SYMATTR Value 1p
SYMBOL voltage -496 208 R0
WINDOW 123 0 0 Left 0
WINDOW 39 0 0 Left 0
SYMATTR InstName V3
SYMATTR Value SINE(0 325 50)
TEXT -888 64 Left 2 !.param G0 10n
TEXT -880 104 Left 2 !.param G1 10n
TEXT -840 168 Left 2 !.tran 2
TEXT -872 136 Left 2 !.param R2 100k
